Version 4.1
SHEET 1 880 680
WIRE 0 128 -48 128
WIRE 128 128 80 128
WIRE 400 128 288 128
WIRE 400 144 400 128
WIRE -48 160 -48 128
WIRE 128 176 128 128
WIRE 192 176 128 176
WIRE 288 176 288 128
WIRE 288 176 256 176
WIRE 160 192 112 192
WIRE 336 192 288 192
WIRE 160 208 160 192
WIRE 192 208 160 208
WIRE 288 208 288 192
WIRE 288 208 256 208
WIRE -48 272 -48 240
WIRE 112 272 112 192
WIRE 112 272 -48 272
WIRE 336 272 336 192
WIRE 400 272 400 208
WIRE 400 272 336 272
WIRE -48 304 -48 272
FLAG -48 304 0
SYMBOL voltage -48 144 R0
WINDOW 3 -439 101 Left 2
WINDOW 123 0 0 Left 0
WINDOW 39 0 0 Left 0
SYMATTR Value PULSE(0 5 5n 5n 5n 200n 400n 100)
SYMATTR InstName V1
SYMBOL cap 384 144 R0
SYMATTR InstName C_load
SYMATTR Value 10p
SYMBOL res 96 112 R90
WINDOW 0 0 56 VBottom 2
WINDOW 3 32 56 VTop 2
SYMATTR InstName R1
SYMATTR Value 3
SYMBOL Lecture6_2025 224 192 R0
SYMATTR InstName U1
TEXT -88 344 Left 2 !.tran 0.05u
